[TITLE]
;;Project Title/Notes

[OPTIONS]
;;Option             Value
FLOW_UNITS           CFS
INFILTRATION         MODIFIED_GREEN_AMPT
FLOW_ROUTING         DYNWAVE
LINK_OFFSETS         DEPTH
MIN_SLOPE            0
ALLOW_PONDING        NO
SKIP_STEADY_STATE    NO

START_DATE           02/06/2018
START_TIME           00:00:00
REPORT_START_DATE    02/06/2018
REPORT_START_TIME    00:00:00
END_DATE             02/07/2018
END_TIME             00:00:00
SWEEP_START          01/01
SWEEP_END            12/31
DRY_DAYS             0
REPORT_STEP          00:01:00
WET_STEP             00:05:00
DRY_STEP             01:00:00
ROUTING_STEP         0:00:10 
RULE_STEP            00:00:00

INERTIAL_DAMPING     PARTIAL
NORMAL_FLOW_LIMITED  BOTH
FORCE_MAIN_EQUATION  H-W
VARIABLE_STEP        0.75
LENGTHENING_STEP     0
MIN_SURFAREA         12.557
MAX_TRIALS           8
HEAD_TOLERANCE       0.005
SYS_FLOW_TOL         5
LAT_FLOW_TOL         5
MINIMUM_STEP         0.5
THREADS              4

[FILES]
;;Interfacing Files
SAVE HOTSTART "mymodel.hsf"

[EVAPORATION]
;;Data Source    Parameters
;;-------------- ----------------
CONSTANT         0.0
DRY_ONLY         NO

[RAINGAGES]
;;Name           Format    Interval SCF      Source    
;;-------------- --------- ------ ------ ----------
Gage1            CUMULATIVE 0:06     1.0      TIMESERIES 2yr12hr         
Gage2            CUMULATIVE 0:06     1.0      TIMESERIES 2yr12hr         
Gage3            CUMULATIVE 0:06     1.0      TIMESERIES 2yr12hr         
Gage4            CUMULATIVE 0:06     1.0      TIMESERIES 2yr12hr         

[SUBCATCHMENTS]
;;Name           Rain Gage        Outlet           Area     %Imperv  Width    %Slope   CurbLen  SnowPack        
;;-------------- ---------------- ---------------- -------- -------- -------- -------- -------- ----------------
S1               Gage1            St1              70       30       1500     0.5      0                        
S2               Gage2            St2              70       30       1500     0.5      0                        
S3               Gage3            St3              70        25      1500      0.5      0                        
S4               Gage4            St4              70        25      1500      0.5      0                        

[SUBAREAS]
;;Subcatchment   N-Imperv   N-Perv     S-Imperv   S-Perv     PctZero    RouteTo    PctRouted 
;;-------------- ---------- ---------- ---------- ---------- ---------- ---------- ----------
S1               0.01       0.1        0.05       0.05       25         OUTLET    
S2               0.01       0.1        0.05       0.05       25         OUTLET    
S3               0.01       0.1        0.05       0.05       25         OUTLET    
S4               0.01       0.1        0.05       0.05       25         OUTLET    

[INFILTRATION]
;;Subcatchment   Suction    Ksat       IMD       
;;-------------- ---------- ---------- ----------
S1               3.5        0.5        0.26      
S2               3.5        0.5        0.25      
S3               3.0        0.5        4         
S4               3.0        0.5        4         

[JUNCTIONS]
;;Name           Elevation  MaxDepth   InitDepth  SurDepth   Aponded   
;;-------------- ---------- ---------- ---------- ---------- ----------
J2               90         5          0          0          0         
J3               50         5          0          0          0         
J4               0          6          0          0          0         

[OUTFALLS]
;;Name           Elevation  Type       Stage Data       Gated    Route To        
;;-------------- ---------- ---------- ---------------- -------- ----------------
;Out1             87         TIDAL      tide_even_higher NO
Out1             87         FREE                        NO                       

[STORAGE]
;;Name           Elev.    MaxDepth   InitDepth  Shape      Curve Name/Params            N/A      Fevap    Psi      Ksat     IMD     
;;-------------- -------- ---------- ----------- ---------- ---------------------------- -------- --------          -------- --------
St1              90       5          0.75       FUNCTIONAL 0      0         60000    0        0       
St2              90       5          0.75       FUNCTIONAL 0      0         60000    0        0       
St3              0        5          0.75       FUNCTIONAL 0      0         60000    0        0       
St4              0        5          0.75       FUNCTIONAL 0      0         60000    0        0       
St5              0        6          0.75       FUNCTIONAL 0      0         60000    0        0       
St6              0        6          0.75       FUNCTIONAL 0      0         60000    0        0       

[CONDUITS]
;;Name           From Node        To Node          Length     Roughness  InOffset   OutOffset  InitFlow   MaxFlow   
;;-------------- ---------------- ---------------- ---------- ---------- ---------- ---------- ---------- ----------
C1               J4               Out1             400        0.01       0          0          0          0         

[ORIFICES]
;;Name           From Node        To Node          Type         Offset     Qcoeff     Gated    CloseTime 
;;-------------- ---------------- ---------------- ------------ ---------- ---------- -------- ----------
R1               St1              J2               BOTTOM       0          0.65       NO       0.2       
R2               St2              J2               BOTTOM       0          0.65       NO       0.2       
R3               St4              J3               BOTTOM         0          0.65       NO       0.2         
R4               St3              J3               BOTTOM         0          0.65       NO       0.2         
R5               St5              J4               BOTTOM         0          0.65       NO       0.2         
R6               St6              J4               BOTTOM         0          0.65       NO       0.2         

[XSECTIONS]
;;Link           Shape        Geom1            Geom2      Geom3      Geom4      Barrels    Culvert   
;;-------------- ------------ ---------------- ---------- ---------- ---------- ---------- ----------
C1               CIRCULAR     1                0          0          0          1                    
R1               CIRCULAR     1                0          0          0
R2               CIRCULAR     1                0          0          0
R3               CIRCULAR     1                0          0          0
R4               CIRCULAR     1                0          0          0
R5               CIRCULAR     1                0          0          0
R6               CIRCULAR     1                0          0          0

[CURVES]
;;Name           Type       X-Value    Y-Value   
;;-------------- ---------- ---------- ----------
tide_table       Tidal      0          87.1725   
tide_table                  1          87.4723   
tide_table                  2          87.7087   
tide_table                  3          87.7028   
tide_table                  4          87.4368   
tide_table                  5          87.103    
tide_table                  6          86.8341   
tide_table                  7          86.4892   
tide_table                  8          86.4753   
tide_table                  9          86.54081818
tide_table                  10         86.7107   
tide_table                  11         87.0043   
tide_table                  12         87.2496   
tide_table                  13         87.4768   
tide_table                  14         87.7017   
tide_table                  15         87.7366   
tide_table                  16         87.5696   
tide_table                  17         87.2363   
tide_table                  18         86.8696   
tide_table                  19         86.5735   
tide_table                  20         86.4052   
tide_table                  21         86.5056   
tide_table                  22         86.7117   
tide_table                  23         86.802    
;
tide_higher      Tidal      0          87.6725   
tide_higher                 1          87.9723   
tide_higher                 2          88.2087   
tide_higher                 3          88.2028   
tide_higher                 4          87.9368   
tide_higher                 5          87.603    
tide_higher                 6          87.3341   
tide_higher                 7          86.9892   
tide_higher                 8          86.9753   
tide_higher                 9          87.04081818
tide_higher                 10         87.2107   
tide_higher                 11         87.5043   
tide_higher                 12         87.7496   
tide_higher                 13         87.9768   
tide_higher                 14         88.2017   
tide_higher                 15         88.2366   
tide_higher                 16         88.0696   
tide_higher                 17         87.7363   
tide_higher                 18         87.3696   
tide_higher                 19         87.0735   
tide_higher                 20         86.9052   
tide_higher                 21         87.0056   
tide_higher                 22         87.2117   
tide_higher                 23         87.302    
;
tide_even_higher Tidal      0          88.1725   
tide_even_higher            1          88.4723   
tide_even_higher            2          88.7087   
tide_even_higher            3          88.7028   
tide_even_higher            4          88.4368   
tide_even_higher            5          88.103    
tide_even_higher            6          87.8341   
tide_even_higher            7          87.4892   
tide_even_higher            8          87.4753   
tide_even_higher            9          87.54081818
tide_even_higher            10         87.7107   
tide_even_higher            11         88.0043   
tide_even_higher            12         88.2496   
tide_even_higher            13         88.4768   
tide_even_higher            14         88.7017   
tide_even_higher            15         88.7366   
tide_even_higher            16         88.5696   
tide_even_higher            17         88.2363   
tide_even_higher            18         87.8696   
tide_even_higher            19         87.5735   
tide_even_higher            20         87.4052   
tide_even_higher            21         87.5056   
tide_even_higher            22         87.7117   
tide_even_higher            23         87.802    

[TIMESERIES]
;;Name           Date       Time       Value     
;;-------------- ---------- ---------- ----------
rainfall1        02/06/2018 0:00       0         
rainfall1        02/06/2018 4:00       0.25      
rainfall1        02/06/2018 5:00       0.5       
rainfall1        02/06/2018 6:00       0.4       
rainfall1        02/06/2018 7:00       0.25      
rainfall1        02/06/2018 8:00       0.125     
rainfall1        02/06/2018 9:00       0         
;
rainfall2        02/06/2018 0:00       0         
rainfall2        02/06/2018 4:00       0         
rainfall2        02/06/2018 5:00       0.25      
rainfall2        02/06/2018 6:00       0.5       
rainfall2        02/06/2018 7:00       0.4       
rainfall2        02/06/2018 8:00       0.25      
rainfall2        02/06/2018 9:00       0.125     
;
tide             2/6/2018   0:00       87.049    
tide             2/6/2018   0:06       87.075    
tide             2/6/2018   0:12       87.104    
tide             2/6/2018   0:18       87.132    
tide             2/6/2018   0:24       87.16     
tide             2/6/2018   0:30       87.19     
tide             2/6/2018   0:36       87.217    
tide             2/6/2018   0:42       87.241    
tide             2/6/2018   0:48       87.266    
tide             2/6/2018   0:54       87.291    
tide             2/6/2018   1:00       87.32     
tide             2/6/2018   1:06       87.356    
tide             2/6/2018   1:12       87.394    
tide             2/6/2018   1:18       87.432    
tide             2/6/2018   1:24       87.465    
tide             2/6/2018   1:30       87.499    
tide             2/6/2018   1:36       87.529    
tide             2/6/2018   1:42       87.553    
tide             2/6/2018   1:48       87.574    
tide             2/6/2018   1:54       87.601    
tide             2/6/2018   2:00       87.631    
tide             2/6/2018   2:06       87.659    
tide             2/6/2018   2:12       87.679    
tide             2/6/2018   2:18       87.695    
tide             2/6/2018   2:24       87.71     
tide             2/6/2018   2:30       87.723    
tide             2/6/2018   2:36       87.731    
tide             2/6/2018   2:42       87.74     
tide             2/6/2018   2:48       87.754    
tide             2/6/2018   2:54       87.765    
tide             2/6/2018   3:00       87.768    
tide             2/6/2018   3:06       87.763    
tide             2/6/2018   3:12       87.755    
tide             2/6/2018   3:18       87.742    
tide             2/6/2018   3:24       87.72     
tide             2/6/2018   3:30       87.696    
tide             2/6/2018   3:36       87.677    
tide             2/6/2018   3:42       87.662    
tide             2/6/2018   3:48       87.639    
tide             2/6/2018   3:54       87.606    
tide             2/6/2018   4:00       87.572    
tide             2/6/2018   4:06       87.539    
tide             2/6/2018   4:12       87.508    
tide             2/6/2018   4:18       87.478    
tide             2/6/2018   4:24       87.451    
tide             2/6/2018   4:30       87.43     
tide             2/6/2018   4:36       87.403    
tide             2/6/2018   4:42       87.369    
tide             2/6/2018   4:48       87.33     
tide             2/6/2018   4:54       87.288    
tide             2/6/2018   5:00       87.251    
tide             2/6/2018   5:06       87.213    
tide             2/6/2018   5:12       87.178    
tide             2/6/2018   5:18       87.142    
tide             2/6/2018   5:24       87.111    
tide             2/6/2018   5:30       87.084    
tide             2/6/2018   5:36       87.057    
tide             2/6/2018   5:42       87.026    
tide             2/6/2018   5:48       86.998    
tide             2/6/2018   5:54       86.97     
tide             2/6/2018   6:00       86.943    
tide             2/6/2018   6:06       86.917    
tide             2/6/2018   6:12       86.895    
tide             2/6/2018   6:18       86.879    
tide             2/6/2018   6:24       86.86     
tide             2/6/2018   6:30       86.836    
tide             2/6/2018   6:36       86.807    
tide             2/6/2018   6:42       86.772    
tide             2/6/2018   6:48       86.736    
tide             2/6/2018   6:54       86.696    
tide             2/6/2018   7:00       86.655    
tide             2/6/2018   7:06       86.618    
tide             2/6/2018   7:12       86.578    
tide             2/6/2018   7:18       86.533    
tide             2/6/2018   7:24       86.489    
tide             2/6/2018   7:30       86.448    
tide             2/6/2018   7:36       86.416    
tide             2/6/2018   7:42       86.394    
tide             2/6/2018   7:48       86.381    
tide             2/6/2018   7:54       86.38     
tide             2/6/2018   8:00       86.384    
tide             2/6/2018   8:06       86.4      
tide             2/6/2018   8:12       86.423    
tide             2/6/2018   8:18       86.447    
tide             2/6/2018   8:24       86.471    
tide             2/6/2018   8:30       86.499    
tide             2/6/2018   8:36       86.522    
tide             2/6/2018   8:42       86.536    
tide             2/6/2018   8:48       86.537    
tide             2/6/2018   8:54       86.534    
tide             2/6/2018   9:00       86.534    
tide             2/6/2018   9:06       86.535    
tide             2/6/2018   9:12       86.531    
tide             2/6/2018   9:18       86.53     
tide             2/6/2018   9:24       86.534    
tide             2/6/2018   9:30       86.542    
tide             2/6/2018   9:36       86.542    
tide             2/6/2018   9:42       86.538    
tide             2/6/2018   9:48       86.539    
tide             2/6/2018   9:54       86.552    
tide             2/6/2018   9:59       86.572    
tide             2/6/2018   10:05      86.595    
tide             2/6/2018   10:11      86.615    
tide             2/6/2018   10:17      86.638    
tide             2/6/2018   10:23      86.667    
tide             2/6/2018   10:29      86.693    
tide             2/6/2018   10:35      86.717    
tide             2/6/2018   10:41      86.744    
tide             2/6/2018   10:47      86.777    
tide             2/6/2018   10:53      86.816    
tide             2/6/2018   10:59      86.845    
tide             2/6/2018   11:05      86.879    
tide             2/6/2018   11:11      86.906    
tide             2/6/2018   11:17      86.932    
tide             2/6/2018   11:23      86.952    
tide             2/6/2018   11:29      86.979    
tide             2/6/2018   11:35      87.014    
tide             2/6/2018   11:41      87.053    
tide             2/6/2018   11:47      87.085    
tide             2/6/2018   11:53      87.111    
tide             2/6/2018   11:59      87.132    
tide             2/6/2018   12:05      87.149    
tide             2/6/2018   12:11      87.166    
tide             2/6/2018   12:17      87.186    
tide             2/6/2018   12:23      87.211    
tide             2/6/2018   12:29      87.245    
tide             2/6/2018   12:35      87.282    
tide             2/6/2018   12:41      87.307    
tide             2/6/2018   12:47      87.317    
tide             2/6/2018   12:53      87.314    
tide             2/6/2018   12:59      87.319    
tide             2/6/2018   13:05      87.342    
tide             2/6/2018   13:11      87.375    
tide             2/6/2018   13:17      87.412    
tide             2/6/2018   13:23      87.445    
tide             2/6/2018   13:29      87.476    
tide             2/6/2018   13:35      87.503    
tide             2/6/2018   13:41      87.522    
tide             2/6/2018   13:47      87.539    
tide             2/6/2018   13:53      87.562    
tide             2/6/2018   13:59      87.592    
tide             2/6/2018   14:05      87.621    
tide             2/6/2018   14:11      87.649    
tide             2/6/2018   14:17      87.673    
tide             2/6/2018   14:23      87.696    
tide             2/6/2018   14:29      87.711    
tide             2/6/2018   14:35      87.718    
tide             2/6/2018   14:41      87.724    
tide             2/6/2018   14:47      87.733    
tide             2/6/2018   14:53      87.742    
tide             2/6/2018   14:59      87.75     
tide             2/6/2018   15:05      87.76     
tide             2/6/2018   15:11      87.766    
tide             2/6/2018   15:17      87.762    
tide             2/6/2018   15:23      87.75     
tide             2/6/2018   15:29      87.742    
tide             2/6/2018   15:35      87.733    
tide             2/6/2018   15:41      87.724    
tide             2/6/2018   15:47      87.713    
tide             2/6/2018   15:53      87.709    
tide             2/6/2018   15:59      87.707    
tide             2/6/2018   16:05      87.69     
tide             2/6/2018   16:11      87.659    
tide             2/6/2018   16:17      87.625    
tide             2/6/2018   16:23      87.595    
tide             2/6/2018   16:29      87.569    
tide             2/6/2018   16:35      87.553    
tide             2/6/2018   16:41      87.54     
tide             2/6/2018   16:47      87.519    
tide             2/6/2018   16:53      87.49     
tide             2/6/2018   16:59      87.456    
tide             2/6/2018   17:05      87.417    
tide             2/6/2018   17:11      87.371    
tide             2/6/2018   17:17      87.325    
tide             2/6/2018   17:23      87.284    
tide             2/6/2018   17:29      87.251    
tide             2/6/2018   17:35      87.221    
tide             2/6/2018   17:41      87.186    
tide             2/6/2018   17:47      87.144    
tide             2/6/2018   17:53      87.102    
tide             2/6/2018   17:59      87.062    
tide             2/6/2018   18:05      87.029    
tide             2/6/2018   18:11      87        
tide             2/6/2018   18:17      86.969    
tide             2/6/2018   18:23      86.934    
tide             2/6/2018   18:29      86.898    
tide             2/6/2018   18:35      86.858    
tide             2/6/2018   18:41      86.816    
tide             2/6/2018   18:47      86.769    
tide             2/6/2018   18:53      86.727    
tide             2/6/2018   18:59      86.696    
tide             2/6/2018   19:05      86.676    
tide             2/6/2018   19:11      86.657    
tide             2/6/2018   19:17      86.634    
tide             2/6/2018   19:23      86.609    
tide             2/6/2018   19:29      86.586    
tide             2/6/2018   19:35      86.563    
tide             2/6/2018   19:41      86.534    
tide             2/6/2018   19:47      86.51     
tide             2/6/2018   19:53      86.492    
tide             2/6/2018   19:59      86.474    
tide             2/6/2018   20:05      86.451    
tide             2/6/2018   20:11      86.429    
tide             2/6/2018   20:17      86.415    
tide             2/6/2018   20:23      86.399    
tide             2/6/2018   20:29      86.39     
tide             2/6/2018   20:35      86.389    
tide             2/6/2018   20:41      86.389    
tide             2/6/2018   20:47      86.392    
tide             2/6/2018   20:53      86.396    
tide             2/6/2018   20:59      86.402    
tide             2/6/2018   21:05      86.409    
tide             2/6/2018   21:11      86.422    
tide             2/6/2018   21:17      86.439    
tide             2/6/2018   21:23      86.46     
tide             2/6/2018   21:29      86.49     
tide             2/6/2018   21:35      86.516    
tide             2/6/2018   21:41      86.543    
tide             2/6/2018   21:47      86.568    
tide             2/6/2018   21:53      86.591    
tide             2/6/2018   21:59      86.618    
tide             2/6/2018   22:05      86.643    
tide             2/6/2018   22:11      86.667    
tide             2/6/2018   22:17      86.684    
tide             2/6/2018   22:23      86.701    
tide             2/6/2018   22:29      86.717    
tide             2/6/2018   22:35      86.729    
tide             2/6/2018   22:41      86.732    
tide             2/6/2018   22:47      86.739    
tide             2/6/2018   22:53      86.747    
tide             2/6/2018   22:59      86.758    
tide             2/6/2018   23:05      86.765    
tide             2/6/2018   23:11      86.771    
tide             2/6/2018   23:17      86.775    
tide             2/6/2018   23:23      86.784    
tide             2/6/2018   23:29      86.798    
tide             2/6/2018   23:35      86.811    
tide             2/6/2018   23:41      86.824    
tide             2/6/2018   23:47      86.838    
tide             2/6/2018   23:53      86.852    
;
1yr12hr                     0:00       0         
1yr12hr                     0:06       0.005552675
1yr12hr                     0:12       0.011166706
1yr12hr                     0:18       0.016842093
1yr12hr                     0:24       0.022578835
1yr12hr                     0:30       0.028376932
1yr12hr                     0:36       0.034236385
1yr12hr                     0:42       0.040157194
1yr12hr                     0:48       0.046139358
1yr12hr                     0:54       0.052182878
1yr12hr                     1:00       0.058287753
1yr12hr                     1:06       0.064453983
1yr12hr                     1:12       0.07068157
1yr12hr                     1:18       0.076970511
1yr12hr                     1:24       0.083320809
1yr12hr                     1:30       0.089732461
1yr12hr                     1:36       0.09620547
1yr12hr                     1:42       0.102739834
1yr12hr                     1:48       0.109335553
1yr12hr                     1:54       0.115992628
1yr12hr                     2:00       0.122711058
1yr12hr                     2:06       0.129613555
1yr12hr                     2:12       0.13682283
1yr12hr                     2:18       0.144338882
1yr12hr                     2:24       0.152161712
1yr12hr                     2:30       0.16029132
1yr12hr                     2:36       0.168727705
1yr12hr                     2:42       0.177470868
1yr12hr                     2:48       0.186520809
1yr12hr                     2:54       0.195877527
1yr12hr                     3:00       0.205541023
1yr12hr                     3:06       0.215357907
1yr12hr                     3:12       0.225174792
1yr12hr                     3:18       0.234991677
1yr12hr                     3:24       0.244808561
1yr12hr                     3:30       0.254625446
1yr12hr                     3:36       0.264687753
1yr12hr                     3:42       0.275240904
1yr12hr                     3:48       0.286284899
1yr12hr                     3:54       0.297819738
1yr12hr                     4:00       0.309845422
1yr12hr                     4:06       0.322484661
1yr12hr                     4:12       0.335860166
1yr12hr                     4:18       0.349971938
1yr12hr                     4:24       0.364819976
1yr12hr                     4:30       0.380404281
1yr12hr                     4:36       0.396970273
1yr12hr                     4:42       0.414763377
1yr12hr                     4:48       0.433783591
1yr12hr                     4:54       0.454030916
1yr12hr                     5:00       0.475505351
1yr12hr                     5:06       0.499065874
1yr12hr                     5:12       0.525571463
1yr12hr                     5:18       0.555022117
1yr12hr                     5:24       0.587417836
1yr12hr                     5:30       0.622758621
1yr12hr                     5:36       0.695894411
1yr12hr                     5:42       0.841675149
1yr12hr                     5:48       1.076145303
1yr12hr                     5:54       1.496645422
1yr12hr                     6:00       1.788513674
1yr12hr                     6:06       1.846678716
1yr12hr                     6:12       1.897849227
1yr12hr                     6:18       1.942025208
1yr12hr                     6:24       1.979206659
1yr12hr                     6:30       2.009393579
1yr12hr                     6:36       2.035285612
1yr12hr                     6:42       2.059582402
1yr12hr                     6:48       2.082283948
1yr12hr                     6:54       2.10339025
1yr12hr                     7:00       2.122901308
1yr12hr                     7:06       2.141185256
1yr12hr                     7:12       2.158610226
1yr12hr                     7:18       2.175176219
1yr12hr                     7:24       2.190883234
1yr12hr                     7:30       2.205731272
1yr12hr                     7:36       2.219843044
1yr12hr                     7:42       2.23334126
1yr12hr                     7:48       2.246225922
1yr12hr                     7:54       2.258497027
1yr12hr                     8:00       2.270154578
1yr12hr                     8:06       2.281413317
1yr12hr                     8:12       2.292426635
1yr12hr                     8:18       2.303255886
1yr12hr                     8:24       2.313839715
1yr12hr                     8:30       2.324239477
1yr12hr                     8:36       2.334393817
1yr12hr                     8:42       2.34436409
1yr12hr                     8:48       2.354088942
1yr12hr                     8:54       2.363629727
1yr12hr                     9:00       2.372925089
1yr12hr                     9:06       2.382036385
1yr12hr                     9:12       2.390902259
1yr12hr                     9:18       2.399584067
1yr12hr                     9:24       2.408020452
1yr12hr                     9:30       2.416272771
1yr12hr                     9:36       2.424279667
1yr12hr                     9:42       2.432102497
1yr12hr                     9:48       2.439679905
1yr12hr                     9:54       2.447073246
1yr12hr                     10:00      2.454221165
1yr12hr                     10:06      2.461246373
1yr12hr                     10:12      2.468179548
1yr12hr                     10:18      2.475051367
1yr12hr                     10:24      2.481831153
1yr12hr                     10:30      2.488549584
1yr12hr                     10:36      2.495175981
1yr12hr                     10:42      2.501741023
1yr12hr                     10:48      2.508214031
1yr12hr                     10:54      2.514625684
1yr12hr                     11:00      2.520945303
1yr12hr                     11:06      2.527203567
1yr12hr                     11:12      2.533369798
1yr12hr                     11:18      2.539474673
1yr12hr                     11:24      2.545487515
1yr12hr                     11:30      2.551439001
1yr12hr                     11:36      2.557298454
1yr12hr                     11:42      2.563096552
1yr12hr                     11:48      2.568802616
1yr12hr                     11:54      2.574447325
1yr12hr                     12:00      2.58      
;